Measurement: Powder, Xray Data XY RAW
Mineral: Acanthite
Rruff sample: R070578
Ideal chemistry: Ag_2_S
Locality: Echo Bay mine, Port Radium, Northwest Territories, Canada
Source: Royal Ontario Museum
Description: Dark gray metallic fragment
Cell parameters: a: 4.230(1) b: 6.923(2) c: 7.869(3) alpha: 90 beta: 99.60(2) gamma: 90 volume: 227.24(2) crystal system: monoclinic
x	intensity
5	0
5.22	0
5.44	0
5.66	0
5.88	0
6.1	0
6.32	0
6.54	0
6.76	0
6.98	0
7.2	0
7.42	0
7.64	0
7.86	0
8.08	0
8.3	0
8.52	0
8.74	0
8.96	0
9.18	0
9.4	0
9.62	0
9.84	0
10.06	0
10.28	0
10.5	0
10.72	0
10.94	0
11.16	0
11.38	0
11.6	0
11.82	0
12.04	0
12.26	0
12.48	0
12.7	0
12.92	0
13.14	0
13.36	0
13.58	0
13.8	0
14.02	0
14.24	0
14.46	0
14.68	0
14.9	0
15.12	0
15.34	0
15.56	0
15.78	0
16	0
16.22	0
16.44	0
16.66	0
16.88	0
17.1	1.068
17.32	0.07
17.54	0
17.76	0
17.98	0
18.2	0
18.42	0
18.64	0
18.86	0
19.08	0
19.3	0
19.52	0
19.74	0
19.96	0
20.18	0
20.4	0
20.62	0
20.84	0
21.06	0
21.28	0
21.5	0
21.72	0
21.94	0
22.16	0
22.38	5.31
22.6	0.834
22.82	0.384
23.04	0.282
23.26	0
23.48	0
23.7	0
23.92	0
24.14	0
24.36	0
24.58	0
24.8	0.434
25.02	0.869
25.24	0
25.46	0
25.68	0.177
25.9	32.424
26.12	0.428
26.34	21.748
26.56	0.081
26.78	0
27	0
27.22	0
27.44	0
27.66	0
27.88	0
28.1	0.168
28.32	0.429
28.54	0
28.76	0.475
28.98	65.286
29.2	0.29
29.42	0
29.64	0
29.86	0
30.08	0
30.3	0
30.52	0
30.74	0
30.96	0
31.18	0
31.4	14.989
31.62	30.496
31.84	0.003
32.06	0
32.28	0
32.5	0
32.72	0
32.94	0
33.16	0
33.38	0.025
33.6	42.253
33.82	3.585
34.04	0
34.26	11.188
34.48	66.001
34.7	67.633
34.92	3.662
35.14	0
35.36	0
35.58	0
35.8	0
36.02	0
36.24	0.002
36.46	22.687
36.68	21.557
36.9	45.783
37.12	38.841
37.34	0.512
37.56	2.759
37.78	56.597
38	0.353
38.22	0
38.44	0
38.66	0.002
38.88	1.597
39.1	0.175
39.32	0
39.54	0
39.76	0.006
39.98	2.243
40.2	0.182
40.42	0
40.64	7.045
40.86	32.259
41.08	0.085
41.3	0
41.52	0
41.74	0
41.96	0
42.18	0
42.4	0
42.62	0
42.84	0
43.06	1.733
43.28	24.955
43.5	21.907
43.72	12.625
43.94	0.371
44.16	18.271
44.38	1.305
44.6	0
44.82	0.273
45.04	0.152
45.26	1.375
45.48	6.523
45.7	1.573
45.92	0.686
46.14	14.348
46.36	3.208
46.58	0.002
46.8	0.194
47.02	0.03
47.24	0.133
47.46	1.653
47.68	6.33
47.9	5.338
48.12	0.005
48.34	0
48.56	0.762
48.78	9.873
49	0.644
49.22	0.971
49.44	0.01
49.66	0
49.88	0
50.1	2.222
50.32	2.126
50.54	0.029
50.76	2.204
50.98	0.683
51.2	1.029
51.42	0.014
51.64	0.004
51.86	0.037
52.08	0.002
52.3	0
52.52	0
52.74	1.281
52.96	3.984
53.18	14.272
53.4	14.249
53.62	0.083
53.84	0
54.06	0.863
54.28	6.538
54.5	1.025
54.72	0.012
54.94	1.312
55.16	0.327
55.38	0.175
55.6	0.165
55.82	0.006
56.04	0
56.26	0
56.48	0
56.7	0
56.92	0.023
57.14	2.673
57.36	0.808
57.58	1.832
57.8	1.037
58.02	2.249
58.24	6.958
58.46	7.99
58.68	0.644
58.9	0
59.12	0.003
59.34	4.03
59.56	3.529
59.78	3.377
60	9.314
60.22	2.631
60.44	0.112
60.66	0.009
60.88	0.274
61.1	7.168
61.32	7.32
61.54	0.855
61.76	0.586
61.98	0.085
62.2	0.099
62.42	1.255
62.64	10.63
62.86	2.796
63.08	3.968
63.3	4.365
63.52	0.304
63.74	18.063
63.96	7.799
64.18	0.114
64.4	6.322
64.62	2.792
64.84	1.694
65.06	0.314
65.28	0
65.5	0.003
65.72	1.863
65.94	3.625
66.16	1.09
66.38	3.287
66.6	1.948
66.82	1.079
67.04	0.241
67.26	0
67.48	0
67.7	1.1
67.92	2.391
68.14	0.43
68.36	0
68.58	0.007
68.8	1.438
69.02	1.336
69.24	2.467
69.46	0.865
69.68	1.11
69.9	10.129
70.12	3.595
70.34	3.59
70.56	7.432
70.78	6.431
71	1.286
71.22	0.348
71.44	4.723
71.66	2.402
71.88	0.232
72.1	1.219
72.32	9.455
72.54	4.895
72.76	0.481
72.98	0.517
73.2	3.913
73.42	3.448
73.64	2.175
73.86	1.28
74.08	0.35
74.3	3.308
74.52	3.056
74.74	1.182
74.96	3.519
75.18	2.559
75.4	0.504
75.62	0.039
75.84	0
76.06	0
76.28	0
76.5	0.132
76.72	1.365
76.94	1.561
77.16	0.477
77.38	0.025
77.6	0.069
77.82	2.025
78.04	2.227
78.26	5.605
78.48	2.498
78.7	0.872
78.92	2.491
79.14	1.149
79.36	0.127
79.58	0.011
79.8	0.006
80.02	0.21
80.24	0.152
80.46	0.484
80.68	0.534
80.9	0.651
81.12	0.237
81.34	0.045
81.56	0
81.78	0.016
82	0.404
82.22	0.999
82.44	0.387
82.66	0.131
82.88	2.578
83.1	1.42
83.32	0.275
83.54	1.328
83.76	2.991
83.98	1.628
84.2	0.45
84.42	0.698
84.64	0.704
84.86	1.426
85.08	1.551
85.3	0.993
85.52	0.759
85.74	1.896
85.96	0.787
86.18	3.069
86.4	1.669
86.62	1.048
86.84	0.098
87.06	1.617
87.28	0.862
87.5	0.236
87.72	1.182
87.94	0.67
88.16	0.173
88.38	0.897
88.6	0.538
88.82	0.473
89.04	0.034
89.26	1.281
89.48	2.242
89.7	1.938
89.92	1.061
