Measurement: Powder, Xray Data XY RAW
Mineral: Aegirine
Rruff sample: R070253
Ideal chemistry: NaFe^3+^Si_2_O_6_
Locality: Lovozero Massif, Kola Peninsula, Murmanskaya Oblast'; Northern Region, Russia
Source: Michael Scott
Description: Dark green to black prismatic aegirine associated with a brown mica and microcline
Cell parameters: a: 9.660(3) b: 8.802(2) c: 5.286(1) alpha: 90 beta: 107.31(2) gamma: 90 volume: 429.1(1) crystal system: monoclinic
x	intensity
5	0
5.22	0
5.44	0
5.66	0
5.88	0
6.1	0
6.32	0
6.54	0
6.76	0
6.98	0
7.2	0
7.42	0
7.64	0
7.86	0
8.08	0
8.3	0
8.52	0
8.74	0
8.96	0
9.18	0
9.4	0
9.62	0
9.84	0
10.06	0
10.28	0
10.5	0
10.72	0
10.94	0
11.16	0
11.38	0
11.6	0
11.82	0
12.04	0
12.26	0
12.48	0
12.7	0
12.92	0
13.14	0
13.36	0
13.58	0
13.8	1.341
14.02	1.983
14.24	0
14.46	0
14.68	0
14.9	0
15.12	0
15.34	0
15.56	0
15.78	0
16	0
16.22	0
16.44	0
16.66	0
16.88	0
17.1	0
17.32	0
17.54	0
17.76	0
17.98	0
18.2	0
18.42	0
18.64	0
18.86	0
19.08	0.001
19.3	2.558
19.52	0
19.74	0
19.96	1.099
20.18	22.469
20.4	0
20.62	0
20.84	0
21.06	0
21.28	0
21.5	0
21.72	0
21.94	0
22.16	0
22.38	0
22.6	0
22.82	0
23.04	0
23.26	0
23.48	0
23.7	0
23.92	0
24.14	0
24.36	0
24.58	1.118
24.8	0.789
25.02	0
25.24	0
25.46	0
25.68	0
25.9	0
26.12	0
26.34	0
26.56	0
26.78	0.004
27	0.004
27.22	0
27.44	0
27.66	0
27.88	0.033
28.1	2.236
28.32	0
28.54	0
28.76	0
28.98	0
29.2	0
29.42	0
29.64	0
29.86	41.239
30.08	4.596
30.3	0
30.52	0
30.74	16.125
30.96	6.364
31.18	0
31.4	0
31.62	0
31.84	0.005
32.06	1.123
32.28	0
32.5	0
32.72	0
32.94	0
33.16	0
33.38	0
33.6	0
33.82	0
34.04	0
34.26	0
34.48	0
34.7	0
34.92	0
35.14	2.232
35.36	7.818
35.58	35.484
35.8	0.117
36.02	0
36.24	4.424
36.46	11.443
36.68	0
36.9	0
37.12	0
37.34	0
37.56	0
37.78	0
38	0.001
38.22	0.538
38.44	0
38.66	0
38.88	0
39.1	0.72
39.32	0.001
39.54	0
39.76	0
39.98	2.397
40.2	1.039
40.42	0.004
40.64	0
40.86	0.022
41.08	13.461
41.3	2.328
41.52	0
41.74	0
41.96	0
42.18	0
42.4	0.001
42.62	14.791
42.84	1.155
43.06	2.19
43.28	3.901
43.5	0
43.72	0
43.94	0
44.16	0
44.38	0.011
44.6	7.9
44.82	1.199
45.04	2.8
45.26	0
45.48	0.001
45.7	0.785
45.92	2.882
46.14	0.144
46.36	0.119
46.58	0
46.8	0.135
47.02	2.649
47.24	0.001
47.46	0
47.68	0
47.9	0
48.12	0.002
48.34	2.368
48.56	0.031
48.78	0
49	0
49.22	0.002
49.44	1.118
49.66	0.012
49.88	1.984
50.1	2.03
50.32	0.1
50.54	1.084
50.76	0.212
50.98	0.192
51.2	0
51.42	0.031
51.64	0.664
51.86	0.001
52.08	0
52.3	0
52.52	0.588
52.74	1.125
52.96	5.81
53.18	0.127
53.4	0.798
53.62	0.038
53.84	0
54.06	0
54.28	0
54.5	2.924
54.72	0.914
54.94	0.488
55.16	0.26
55.38	5.298
55.6	0.673
55.82	0
56.04	0
56.26	6.723
56.48	5.72
56.7	0
56.92	0.318
57.14	11.841
57.36	2.192
57.58	0
57.8	0.762
58.02	2.624
58.24	0.004
58.46	0
58.68	0.259
58.9	0.32
59.12	0.508
59.34	0.527
59.56	0.069
59.78	0.314
60	0.004
60.22	2.705
60.44	3.443
60.66	2.174
60.88	0.08
61.1	0.014
61.32	1.462
61.54	0.669
61.76	4.35
61.98	0.425
62.2	2.192
62.42	0.185
62.64	0.046
62.86	0.144
63.08	0.455
63.3	2.191
63.52	2.506
63.74	0.597
63.96	0
64.18	0.004
64.4	0.369
64.62	0.079
64.84	0
65.06	0
65.28	0
65.5	0
65.72	0
65.94	0.423
66.16	0.604
66.38	0.045
66.6	4.918
66.82	3.498
67.04	9.724
67.26	6.307
67.48	1.303
67.7	0.271
67.92	0.304
68.14	2.085
68.36	1.974
68.58	0.017
68.8	0
69.02	0
69.24	0
69.46	0
69.68	0
69.9	0
70.12	0
70.34	0.038
70.56	0.038
70.78	0.907
71	1.215
71.22	2.534
71.44	1.03
71.66	0.115
71.88	0.042
72.1	0
72.32	0.004
72.54	1.569
72.76	5.425
72.98	2.408
73.2	0.066
73.42	0.111
73.64	0.051
73.86	0.001
74.08	1.171
74.3	0.565
74.52	0.82
74.74	2.434
74.96	1.227
75.18	0.194
75.4	0.722
75.62	0.906
75.84	0.292
76.06	0.004
76.28	0.213
76.5	0.217
76.72	0.08
76.94	0.29
77.16	1.182
77.38	0.549
77.6	0.873
77.82	0.764
78.04	0.362
78.26	1.206
78.48	0.67
78.7	0.004
78.92	0.163
79.14	0.236
79.36	0.059
79.58	0.015
79.8	0.213
80.02	1.849
80.24	0.889
80.46	0.047
80.68	0.113
80.9	0.069
81.12	0.003
81.34	0
81.56	0.032
81.78	0.031
82	0.04
82.22	0.012
82.44	0.012
82.66	0.042
82.88	0.059
83.1	1.04
83.32	1.498
83.54	1.024
83.76	0.155
83.98	0.415
84.2	0.362
84.42	0.011
84.64	0
84.86	0
85.08	0
85.3	0.013
85.52	0.241
85.74	0.534
85.96	0.252
86.18	0.139
86.4	0.04
86.62	0.03
86.84	0.025
87.06	0.024
87.28	0
87.5	0.004
87.72	0.072
87.94	0.051
88.16	0.097
88.38	0.404
88.6	0.4
88.82	0.02
89.04	0.013
89.26	0.12
89.48	0.329
89.7	0.032
89.92	0.01
