Measurement: Powder, Xray Data XY RAW
Mineral: Andradite
Rruff sample: R100049
Ideal chemistry: Ca_3_Fe^3+^_2_(SiO_4_)_3_
Locality: Langban, Filipstad, Varmland, Sweden
Source: William W Pinch
Description: Yellowish orange transparent crystals associated with phenakite
Cell parameters: a: 12.056(2) b: 12.056(2) c: 12.056(2) alpha: 90 beta: 90 gamma: 90 volume: 1752.5(1) crystal system: cubic
x	intensity
5	0
5.22	0
5.44	0
5.66	0
5.88	0
6.1	0
6.32	0
6.54	0
6.76	0
6.98	0
7.2	0
7.42	0
7.64	0
7.86	0
8.08	0
8.3	0
8.52	0
8.74	0
8.96	0
9.18	0
9.4	0
9.62	0
9.84	0
10.06	0
10.28	0
10.5	0
10.72	0
10.94	0
11.16	0
11.38	0
11.6	0
11.82	0
12.04	0
12.26	0
12.48	0
12.7	0
12.92	0
13.14	0
13.36	0
13.58	0
13.8	0
14.02	0
14.24	0
14.46	0
14.68	0
14.9	0
15.12	0
15.34	0
15.56	0
15.78	0
16	0
16.22	0
16.44	0
16.66	0
16.88	0
17.1	0
17.32	0
17.54	0
17.76	0
17.98	0.002
18.2	0
18.42	0
18.64	0
18.86	0
19.08	0
19.3	0
19.52	0
19.74	0
19.96	0
20.18	0
20.4	0
20.62	0
20.84	31.163
21.06	0
21.28	0
21.5	0
21.72	0
21.94	0
22.16	0
22.38	0
22.6	0
22.82	0
23.04	0
23.26	0
23.48	0
23.7	0
23.92	0
24.14	0
24.36	0
24.58	0
24.8	0
25.02	0
25.24	0
25.46	0
25.68	0
25.9	0
26.12	0
26.34	0
26.56	0
26.78	0
27	0
27.22	0
27.44	0
27.66	0.168
27.88	0
28.1	0
28.32	0
28.54	0
28.76	0
28.98	0
29.2	0
29.42	0.002
29.64	77.195
29.86	0.011
30.08	0
30.3	0
30.52	0
30.74	0
30.96	0
31.18	0
31.4	0
31.62	0
31.84	0
32.06	0
32.28	0
32.5	0
32.72	0
32.94	0
33.16	54.305
33.38	5.318
33.6	0
33.82	0
34.04	0
34.26	0
34.48	0
34.7	0.002
34.92	7.448
35.14	0.002
35.36	0
35.58	0
35.8	0
36.02	0
36.24	0
36.46	63.553
36.68	2.047
36.9	0
37.12	0
37.34	0
37.56	0
37.78	0
38	11.615
38.22	0.706
38.44	0
38.66	0
38.88	0
39.1	0
39.32	0
39.54	0
39.76	0
39.98	0
40.2	0
40.42	0
40.64	0
40.86	0.638
41.08	6.525
41.3	0
41.52	0
41.74	0
41.96	0
42.18	0
42.4	0.43
42.62	0.003
42.84	0
43.06	0
43.28	0
43.5	0
43.72	0
43.94	0
44.16	0
44.38	0
44.6	0
44.82	0
45.04	0
45.26	0
45.48	0
45.7	0
45.92	0
46.14	0
46.36	15.644
46.58	3.492
46.8	0
47.02	0
47.24	0
47.46	0.001
47.68	13.299
47.9	0.565
48.12	0
48.34	0
48.56	0
48.78	0.002
49	0.08
49.22	0
49.44	0
49.66	0
49.88	0
50.1	0
50.32	0
50.54	0
50.76	0
50.98	0
51.2	0
51.42	0.014
51.64	0
51.86	0
52.08	0
52.3	0
52.52	3.995
52.74	1.424
52.96	0
53.18	0
53.4	0
53.62	0.066
53.84	0.263
54.06	0
54.28	0
54.5	0
54.72	0.181
54.94	11.762
55.16	0.184
55.38	0
55.6	0
55.82	0.001
56.04	1.039
56.26	0.076
56.48	0
56.7	0
56.92	0.009
57.14	71.478
57.36	11.238
57.58	0
57.8	0
58.02	0
58.24	0
58.46	0
58.68	0
58.9	0
59.12	0
59.34	0
59.56	0
59.78	0
60	0
60.22	0
60.44	0.24
60.66	0.037
60.88	0
61.1	0
61.32	0.058
61.54	6.297
61.76	0.571
61.98	0
62.2	0
62.42	0.074
62.64	0.454
62.86	0.012
63.08	0
63.3	0
63.52	0.034
63.74	0.041
63.96	0
64.18	0
64.4	0
64.62	0.73
64.84	0.326
65.06	0
65.28	0
65.5	0.017
65.72	1.524
65.94	0.262
66.16	0
66.38	0
66.6	0.061
66.82	0.08
67.04	0.001
67.26	0
67.48	0
67.7	0
67.92	0
68.14	0
68.36	0
68.58	0.011
68.8	0.061
69.02	0.009
69.24	0
69.46	0
69.68	12.831
69.9	7.403
70.12	0.002
70.34	0
70.56	0
70.78	0
71	0
71.22	0
71.44	0
71.66	10.973
71.88	6.214
72.1	0.004
72.32	0
72.54	0.04
72.76	0.282
72.98	0.089
73.2	0
73.42	0.001
73.64	10.46
73.86	5.326
74.08	0.001
74.3	0
74.52	0.253
74.74	0.29
74.96	0.067
75.18	0
75.4	0
75.62	0
75.84	0
76.06	0
76.28	0
76.5	0.208
76.72	0.098
76.94	0.002
77.16	0
77.38	0.056
77.6	0.367
77.82	0.221
78.04	0
78.26	0.002
78.48	2.621
78.7	1.326
78.92	0.001
79.14	0
79.36	0.002
79.58	0.001
79.8	0
80.02	0
80.24	0.017
80.46	0.103
80.68	0.084
80.9	0
81.12	0
81.34	0.283
81.56	0.149
81.78	0
82	0
82.22	0.272
82.44	0.08
82.66	0.007
82.88	0
83.1	0
83.32	0
83.54	0
83.76	0
83.98	0.004
84.2	0.303
84.42	0.218
84.64	0
84.86	0
85.08	0
85.3	0
85.52	0
85.74	0
85.96	0.005
86.18	0.001
86.4	0.001
86.62	0
86.84	0.91
87.06	2.667
87.28	3.878
87.5	0
87.72	0.001
87.94	0.089
88.16	0.053
88.38	0
88.6	0.003
88.82	13.782
89.04	2.957
89.26	0.315
89.48	0
89.7	0.179
89.92	0.027
