Measurement: Powder, Xray Data XY RAW
Mineral: Anorthite
Rruff sample: R100170
Ideal chemistry: CaAl_2_Si_2_O_8_
Locality: La Elenda mine, near Nuevo Casas Grandes, Municipio de Nuevo Casas Grandes, Chihuahua, Mexico
Source: Mineralogical Museum, Harvard University
Description: Yellow-gray transparent fragment
Cell parameters: a: 8.186(1) b: 12.883(2) c: 7.116(1) alpha: 93.434(9) beta: 116.164(7) gamma: 90.386(9) volume: 671.9(2) crystal system: triclinic
x	intensity
5	0
5.22	0
5.44	0
5.66	0
5.88	0
6.1	0
6.32	0
6.54	0
6.76	0
6.98	0
7.2	0
7.42	0
7.64	0
7.86	0
8.08	0
8.3	0
8.52	0
8.74	0
8.96	0
9.18	0
9.4	0
9.62	0
9.84	0
10.06	0
10.28	0
10.5	0
10.72	0
10.94	0
11.16	0
11.38	0
11.6	0
11.82	0
12.04	0
12.26	0
12.48	0
12.7	0
12.92	0
13.14	0
13.36	0
13.58	0.14
13.8	0.008
14.02	0.005
14.24	0
14.46	0
14.68	0
14.9	0
15.12	0.079
15.34	0
15.56	0.001
15.78	0.002
16	0
16.22	0
16.44	0
16.66	0
16.88	0
17.1	0
17.32	0
17.54	0
17.76	0
17.98	0
18.2	0
18.42	0
18.64	0
18.86	2.196
19.08	0
19.3	0
19.52	0
19.74	0
19.96	0
20.18	0
20.4	0
20.62	0
20.84	0
21.06	0
21.28	0
21.5	0
21.72	0
21.94	63.425
22.16	0
22.38	0
22.6	0
22.82	7.98
23.04	0
23.26	0
23.48	0
23.7	26.493
23.92	0
24.14	0.002
24.36	2.744
24.58	6.654
24.8	0
25.02	0
25.24	0
25.46	0.787
25.68	4.195
25.9	0.821
26.12	0.266
26.34	0.857
26.56	0.266
26.78	0
27	0
27.22	0
27.44	2.6
27.66	1.38
27.88	22.305
28.1	12.701
28.32	0.135
28.54	4.226
28.76	0
28.98	0
29.2	0
29.42	2.682
29.64	0.146
29.86	0
30.08	0
30.3	10.332
30.52	2.889
30.74	3.027
30.96	0
31.18	0
31.4	0.35
31.62	2.235
31.84	1.287
32.06	0.201
32.28	0.017
32.5	0
32.72	0
32.94	0
33.16	0.021
33.38	0
33.6	0.288
33.82	3.804
34.04	0
34.26	0
34.48	0
34.7	0
34.92	0
35.14	0.055
35.36	0.408
35.58	24.392
35.8	8.317
36.02	0
36.24	0
36.46	1.509
36.68	0.703
36.9	0.18
37.12	5.017
37.34	0.024
37.56	0.236
37.78	0.471
38	0.409
38.22	1.157
38.44	0.05
38.66	0.04
38.88	0.247
39.1	1.032
39.32	0.95
39.54	0.376
39.76	1.11
39.98	0.948
40.2	0.001
40.42	3.986
40.64	0.456
40.86	0.002
41.08	0
41.3	0.895
41.52	0.003
41.74	2.074
41.96	0.09
42.18	5.164
42.4	8.501
42.62	0.256
42.84	0.088
43.06	3.584
43.28	0.384
43.5	0
43.72	0.004
43.94	0.047
44.16	0
44.38	0
44.6	0.002
44.82	1.009
45.04	1.138
45.26	0.464
45.48	0.864
45.7	1.614
45.92	0.323
46.14	0.789
46.36	0.001
46.58	0.594
46.8	0.352
47.02	1.951
47.24	2.203
47.46	0.618
47.68	0.004
47.9	0.239
48.12	0.101
48.34	7.779
48.56	0.424
48.78	0.002
49	0.518
49.22	2.902
49.44	0.303
49.66	8.474
49.88	0.824
50.1	1.299
50.32	0.62
50.54	0.011
50.76	3.006
50.98	0.485
51.2	1.564
51.42	14.79
51.64	0.779
51.86	0.072
52.08	1.638
52.3	3.984
52.52	0.299
52.74	0.969
52.96	0.947
53.18	1.403
53.4	2.923
53.62	0.785
53.84	0.008
54.06	0.727
54.28	0.436
54.5	0.869
54.72	0.896
54.94	0.153
55.16	0
55.38	0.017
55.6	0.594
55.82	0.133
56.04	0.011
56.26	0.698
56.48	0.45
56.7	0.655
56.92	0.396
57.14	0.984
57.36	0.576
57.58	0.059
57.8	0.222
58.02	0.425
58.24	0.933
58.46	0.444
58.68	1.872
58.9	0.814
59.12	0.405
59.34	0.029
59.56	0.566
59.78	0.356
60	0.683
60.22	0.422
60.44	0.206
60.66	0.429
60.88	0.393
61.1	1.056
61.32	0.423
61.54	0.32
61.76	0.327
61.98	1.725
62.2	4.318
62.42	2.344
62.64	4.606
62.86	1.446
63.08	0.81
63.3	2.577
63.52	0.367
63.74	1.444
63.96	2.185
64.18	0.238
64.4	0.39
64.62	0.845
64.84	0.044
65.06	0.354
65.28	0.111
65.5	0
65.72	3.587
65.94	1.456
66.16	1.597
66.38	0.479
66.6	0.135
66.82	0.219
67.04	0.898
67.26	0.586
67.48	3.268
67.7	1.925
67.92	2.213
68.14	0.62
68.36	0.468
68.58	2.656
68.8	0.765
69.02	0.277
69.24	0.021
69.46	3.696
69.68	2.044
69.9	1.359
70.12	1.089
70.34	1.433
70.56	0.623
70.78	0.161
71	1.053
71.22	2.637
71.44	1.642
71.66	0.294
71.88	0.001
72.1	0.461
72.32	0.35
72.54	0.118
72.76	0.624
72.98	2.352
73.2	1.153
73.42	0.089
73.64	0.489
73.86	0.989
74.08	0.365
74.3	0.028
74.52	1.318
74.74	0.847
74.96	0.212
75.18	0.423
75.4	1.004
75.62	1.888
75.84	0.742
76.06	0.01
76.28	0.045
76.5	0.113
76.72	0.13
76.94	0.456
77.16	0.185
77.38	0.054
77.6	0.039
77.82	0.244
78.04	2.379
78.26	1.217
78.48	0.38
78.7	0.317
78.92	0.371
79.14	0.873
79.36	0.418
79.58	0.046
79.8	0.024
80.02	0.014
80.24	0.024
80.46	0.026
80.68	0.039
80.9	0.433
81.12	0.46
81.34	0.181
81.56	0.125
81.78	0.015
82	0.11
82.22	0.068
82.44	0.872
82.66	0.779
82.88	0.797
83.1	0.145
83.32	0.425
83.54	1.495
83.76	0.94
83.98	0.037
84.2	0.057
84.42	1.233
84.64	0.29
84.86	0.068
85.08	0.021
85.3	0.439
85.52	0.402
85.74	0.079
85.96	2.104
86.18	0.901
86.4	0.028
86.62	0.006
86.84	0.005
87.06	0.006
87.28	0.332
87.5	0.779
87.72	0.4
87.94	0.052
88.16	0.015
88.38	0.014
88.6	0.106
88.82	0.006
89.04	0.029
89.26	0.2
89.48	0.036
89.7	0.159
89.92	0.079
