Measurement: Powder, Xray Data XY RAW
Mineral: Arsendescloizite
Rruff sample: R140430
Ideal chemistry: Pb^2+^Zn^2+^As^5+^O_4_(OH)
Locality: Tsumeb, Namibia
Source: University of Arizona Mineral Museum 17511
Description: Yellowish tabular crystals
Cell parameters: a: 7.634(2) b: 9.343(3) c: 6.062(2) alpha: 90 beta: 90 gamma: 90 volume: 432.33(9) crystal system: orthorhombic
x	intensity
5	0
5.22	0
5.44	0
5.66	0
5.88	0
6.1	0
6.32	0
6.54	0
6.76	0
6.98	0
7.2	0
7.42	0
7.64	0
7.86	0
8.08	0
8.3	0
8.52	0
8.74	0
8.96	0
9.18	0
9.4	0
9.62	0
9.84	0
10.06	0
10.28	0
10.5	0
10.72	0
10.94	0
11.16	0
11.38	0
11.6	0
11.82	0
12.04	0
12.26	0
12.48	0
12.7	0
12.92	0
13.14	0
13.36	0
13.58	0
13.8	0
14.02	0
14.24	0
14.46	0
14.68	0
14.9	0.283
15.12	0.061
15.34	0
15.56	0
15.78	0
16	0
16.22	0
16.44	0
16.66	0
16.88	0
17.1	0
17.32	4.903
17.54	8.401
17.76	0
17.98	0
18.2	0
18.42	0
18.64	0.46
18.86	1.289
19.08	6.536
19.3	0
19.52	0
19.74	0
19.96	0
20.18	0
20.4	0
20.62	0
20.84	2.199
21.06	21.706
21.28	0.001
21.5	0
21.72	0
21.94	0
22.16	0.564
22.38	5.4
22.6	0
22.82	0
23.04	0.001
23.26	5.597
23.48	0.18
23.7	0
23.92	0.43
24.14	1.241
24.36	0
24.58	0
24.8	0
25.02	0.236
25.24	11.259
25.46	0.007
25.68	0
25.9	0
26.12	0
26.34	0
26.56	0.067
26.78	14.638
27	0.056
27.22	0
27.44	3.023
27.66	79.304
27.88	0.053
28.1	0
28.32	0
28.54	0
28.76	0
28.98	0
29.2	2.464
29.42	20.347
29.64	1.386
29.86	0
30.08	0.287
30.3	2.384
30.52	0.001
30.74	0.015
30.96	49.568
31.18	4.364
31.4	0
31.62	0.234
31.84	0.997
32.06	0
32.28	0.005
32.5	0
32.72	0
32.94	0.01
33.16	31.905
33.38	3.829
33.6	7.357
33.82	20.758
34.04	0.006
34.26	1.958
34.48	38.388
34.7	0.108
34.92	0
35.14	1.823
35.36	12.529
35.58	0.015
35.8	0
36.02	0
36.24	0
36.46	1.156
36.68	3.469
36.9	0.002
37.12	0.708
37.34	2.763
37.56	0.003
37.78	0.497
38	0.821
38.22	0.018
38.44	0.061
38.66	0.003
38.88	0.01
39.1	14.19
39.32	2.485
39.54	4.048
39.76	0.887
39.98	0.001
40.2	1.277
40.42	7.784
40.64	0.042
40.86	0
41.08	0
41.3	0.032
41.52	1.497
41.74	0.285
41.96	0
42.18	0
42.4	0
42.62	2.821
42.84	2.681
43.06	5.65
43.28	15.012
43.5	1.09
43.72	0
43.94	0
44.16	0
44.38	0
44.6	0
44.82	0
45.04	0
45.26	0.002
45.48	0.754
45.7	0.158
45.92	2.552
46.14	1.793
46.36	0.431
46.58	0.865
46.8	0.021
47.02	0
47.24	0.001
47.46	4.127
47.68	8.605
47.9	0.456
48.12	1.741
48.34	0.284
48.56	16.181
48.78	2.238
49	0.804
49.22	6.172
49.44	0.809
49.66	0
49.88	0.002
50.1	0.167
50.32	0.397
50.54	0.843
50.76	4.976
50.98	3.843
51.2	11.766
51.42	0.22
51.64	5.905
51.86	4.542
52.08	0.389
52.3	0.135
52.52	2.849
52.74	3.092
52.96	0.019
53.18	1.658
53.4	0.495
53.62	0
53.84	0.006
54.06	0.183
54.28	0.024
54.5	0.17
54.72	1.244
54.94	2.942
55.16	5.044
55.38	3.037
55.6	19.635
55.82	3.458
56.04	0.001
56.26	0
56.48	0.012
56.7	0.019
56.92	7.124
57.14	5.327
57.36	0.023
57.58	0
57.8	0.214
58.02	0.439
58.24	0.809
58.46	0.361
58.68	0.298
58.9	0.138
59.12	1.453
59.34	11.973
59.56	3.159
59.78	0.944
60	0.014
60.22	0
60.44	0.437
60.66	1.476
60.88	0.242
61.1	4.774
61.32	2.04
61.54	4.796
61.76	1.759
61.98	2.018
62.2	0.476
62.42	0.191
62.64	0.18
62.86	1.094
63.08	0.333
63.3	2.318
63.52	3.106
63.74	2.469
63.96	0.103
64.18	0.052
64.4	0.032
64.62	0.756
64.84	0.54
65.06	0.465
65.28	0.073
65.5	0.001
65.72	0.442
65.94	0.903
66.16	5.484
66.38	3.092
66.6	6.929
66.82	3.707
67.04	0.132
67.26	0.233
67.48	0.553
67.7	0.723
67.92	0.081
68.14	0.158
68.36	2.264
68.58	0.936
68.8	0.926
69.02	0.557
69.24	0.011
69.46	0.679
69.68	3.969
69.9	1.656
70.12	4.212
70.34	4.255
70.56	1.35
70.78	0.878
71	0.459
71.22	0.012
71.44	0
71.66	0.009
71.88	0.023
72.1	0.19
72.32	0.655
72.54	1.451
72.76	0.528
72.98	0.032
73.2	0.266
73.42	1.297
73.64	0.608
73.86	0.153
74.08	0.156
74.3	0.069
74.52	0.019
74.74	0.071
74.96	0.126
75.18	0.093
75.4	0.628
75.62	0.397
75.84	0.833
76.06	3.987
76.28	3.35
76.5	2.823
76.72	1.053
76.94	0.002
77.16	0.248
77.38	0.201
77.6	0.101
77.82	0.114
78.04	0.121
78.26	0.14
78.48	0.38
78.7	0.169
78.92	0.013
79.14	0.757
79.36	4.031
79.58	3.123
79.8	1.022
80.02	0.431
80.24	0.108
80.46	0.583
80.68	0.357
80.9	1.891
81.12	1.049
81.34	1.32
81.56	1.153
81.78	0.653
82	3.363
82.22	1.511
82.44	0.543
82.66	0.227
82.88	1.523
83.1	1.274
83.32	0.62
83.54	1.272
83.76	0.7
83.98	1.233
84.2	0.889
84.42	0.909
84.64	0.174
84.86	0.006
85.08	0.078
85.3	0.449
85.52	1.801
85.74	0.679
85.96	0.151
86.18	0.007
86.4	0.297
86.62	0.63
86.84	3.922
87.06	2.706
87.28	0.469
87.5	0.901
87.72	0.309
87.94	0.923
88.16	0.398
88.38	0.114
88.6	0.306
88.82	0.606
89.04	2.545
89.26	0.822
89.48	0.542
89.7	0.126
89.92	1.458
